<?xml version="1.0" encoding="utf-8"?>
<!DOCTYPE population SYSTEM "http://www.matsim.org/files/dtd/population_v6.dtd">

<population>



<!-- ====================================================================== -->

	<person id="10254-2_2_2#1">
		<attributes>
			<attribute name="age" class="java.lang.Integer">39</attribute>
			<attribute name="bigCityDweller" class="java.lang.Boolean">false</attribute>
			<attribute name="bikeAvailable" class="java.lang.Boolean">true</attribute>
			<attribute name="carAvail" class="java.lang.String">always</attribute>
			<attribute name="carParkingAtWork" class="java.lang.Boolean">true</attribute>
			<attribute name="childrenInHousehold" class="java.lang.Integer">0</attribute>
			<attribute name="employed" class="java.lang.Boolean">true</attribute>
			<attribute name="fullTimeWork" class="java.lang.Boolean">true</attribute>
			<attribute name="fzg_e_rad" class="java.lang.Integer">0</attribute>
			<attribute name="fzg_mot" class="java.lang.Integer">0</attribute>
			<attribute name="fzg_pkw" class="java.lang.Integer">2</attribute>
			<attribute name="fzg_radges" class="java.lang.Integer">2</attribute>
			<attribute name="hasLicense" class="java.lang.String">yes</attribute>
			<attribute name="hgr_kat" class="java.lang.Integer">2</attribute>
			<attribute name="hh_carsharing" class="java.lang.Integer">2</attribute>
			<attribute name="hh_gr" class="java.lang.Integer">2</attribute>
			<attribute name="hh_gr617" class="java.lang.Integer">0</attribute>
			<attribute name="hh_gru6" class="java.lang.Integer">0</attribute>
			<attribute name="hh_grue18" class="java.lang.Integer">2</attribute>
			<attribute name="hh_hochrechnungsfaktor" class="java.lang.Double">23.611391731435184</attribute>
			<attribute name="hh_nr" class="java.lang.String">10254-2</attribute>
			<attribute name="hh_oev_bahn" class="java.lang.Integer">2</attribute>
			<attribute name="hh_oev_bus" class="java.lang.Integer">1</attribute>
			<attribute name="hh_oev_entf" class="java.lang.Integer">2</attribute>
			<attribute name="hh_oev_entf_kat" class="java.lang.Integer">1</attribute>
			<attribute name="hh_oev_strb" class="java.lang.Integer">2</attribute>
			<attribute name="hh_oev_ubahn" class="java.lang.Integer">2</attribute>
			<attribute name="hh_wirtschsituation" class="java.lang.Integer">3</attribute>
			<attribute name="hh_wohnbdl" class="java.lang.Integer">1</attribute>
			<attribute name="hh_wohnbezirk" class="java.lang.Integer">108</attribute>
			<attribute name="hh_wohngemeinde" class="java.lang.Integer">10813</attribute>
			<attribute name="hh_wohnraumtyp" class="java.lang.Integer">4</attribute>
			<attribute name="hid" class="java.lang.String">10254-2#1</attribute>
			<attribute name="highEducation" class="java.lang.Boolean">true</attribute>
			<attribute name="highIncome" class="java.lang.Boolean">false</attribute>
			<attribute name="hzone" class="java.lang.Integer">10813</attribute>
			<attribute name="internalTrafficOnly" class="java.lang.Boolean">false</attribute>
			<attribute name="pers_alter" class="java.lang.Integer">39</attribute>
			<attribute name="pers_alter_kat" class="java.lang.Integer">5</attribute>
			<attribute name="pers_arbeit_parkpl" class="java.lang.Integer">1</attribute>
			<attribute name="pers_arbeitflex" class="java.lang.Integer">2</attribute>
			<attribute name="pers_arbeitsstd" class="java.lang.Double">40.0</attribute>
			<attribute name="pers_arbeittele" class="java.lang.Integer">2</attribute>
			<attribute name="pers_beruf" class="java.lang.Integer">2</attribute>
			<attribute name="pers_betr_andere" class="java.lang.Integer">2</attribute>
			<attribute name="pers_betr_kind" class="java.lang.Integer">2</attribute>
			<attribute name="pers_betr_verwandte" class="java.lang.Integer">2</attribute>
			<attribute name="pers_bildung" class="java.lang.Integer">5</attribute>
			<attribute name="pers_fahrrad" class="java.lang.Integer">1</attribute>
			<attribute name="pers_fs_krad" class="java.lang.Integer">2</attribute>
			<attribute name="pers_fs_pkw" class="java.lang.Integer">1</attribute>
			<attribute name="pers_geschlecht" class="java.lang.Integer">1</attribute>
			<attribute name="pers_hochrechnungsfaktor" class="java.lang.Double">90.32688244300466</attribute>
			<attribute name="pers_krad" class="java.lang.Integer">-90</attribute>
			<attribute name="pers_navi_andere" class="java.lang.Integer">2</attribute>
			<attribute name="pers_navi_oev" class="java.lang.Integer">2</attribute>
			<attribute name="pers_navi_pkw" class="java.lang.Integer">1</attribute>
			<attribute name="pers_nr" class="java.lang.Integer">2</attribute>
			<attribute name="pers_oev_ermaessigung" class="java.lang.Integer">2</attribute>
			<attribute name="pers_oev_zeitkarte" class="java.lang.Integer">2</attribute>
			<attribute name="pers_pkw" class="java.lang.Integer">1</attribute>
			<attribute name="perstag_hochrechnungsfaktor_herbst_werktag" class="java.lang.Double">0.0</attribute>
			<attribute name="perstag_hochrechnungsfaktor_samstag" class="java.lang.Double">0.0</attribute>
			<attribute name="perstag_hochrechnungsfaktor_sonntag" class="java.lang.Double">0.0</attribute>
			<attribute name="perstag_hochrechnungsfaktor_werktag" class="java.lang.Double">64.06815922962282</attribute>
			<attribute name="perstag_hochrechnungsfaktor_woche" class="java.lang.Double">44.06852042138608</attribute>
			<attribute name="perstag_jahr" class="java.lang.Integer">2014</attribute>
			<attribute name="perstag_jzeit" class="java.lang.Integer">4</attribute>
			<attribute name="perstag_mobil" class="java.lang.Integer">1</attribute>
			<attribute name="perstag_stnr" class="java.lang.Integer">2</attribute>
			<attribute name="perstag_tag" class="java.lang.Integer">5</attribute>
			<attribute name="perstag_weganz" class="java.lang.Integer">4</attribute>
			<attribute name="perstag_wegdauer" class="java.lang.Double">100.0</attribute>
			<attribute name="perstag_weglaenge" class="java.lang.Double">90.0</attribute>
			<attribute name="perstag_wttyp" class="java.lang.Integer">1</attribute>
			<attribute name="sex" class="java.lang.String">m</attribute>
			<attribute name="singleHousehold" class="java.lang.Boolean">false</attribute>
			<attribute name="transitConcession" class="java.lang.Boolean">false</attribute>
			<attribute name="transitSeasonTicket" class="java.lang.Boolean">false</attribute>
			<attribute name="x" class="java.lang.String">x</attribute>
		</attributes>
		<plan selected="yes">
			<activity type="home" x="643493.1563343306" y="415941.20315196045" start_time="00:00:00" end_time="07:30:22" >
			</activity>
			<leg mode="car" trav_time="00:20:00">
				<attributes>
					<attribute name="trafficType" class="java.lang.String">inside</attribute>
				</attributes>
			</leg>
			<activity type="work" x="639012.8556247312" y="405593.18772851233" start_time="07:50:22" end_time="13:01:09" >
			</activity>
			<leg mode="carpoolingDriver" trav_time="00:20:00">
				<attributes>
					<attribute name="trafficType" class="java.lang.String">inside</attribute>
				</attributes>
			</leg>
			<activity type="home" x="643493.1563343306" y="415941.20315196045" start_time="13:21:09" end_time="15:29:45" >
			</activity>
			<leg mode="carpoolingDriver" trav_time="00:30:00">
				<attributes>
					<attribute name="trafficType" class="java.lang.String">source</attribute>
				</attributes>
			</leg>
			<activity type="leisure" x="640770.5912466877" y="402860.76609067386" start_time="15:59:45" end_time="18:53:52" >
			</activity>
			<leg mode="car" trav_time="00:30:00">
				<attributes>
					<attribute name="trafficType" class="java.lang.String">destination</attribute>
				</attributes>
			</leg>
			<activity type="home" x="643493.1563343306" y="415941.20315196045" start_time="19:23:52" end_time="24:00:00" >
			</activity>
		</plan>

	</person>

<!-- ====================================================================== -->

	<person id="10652-0_1_1#10">
		<attributes>
			<attribute name="age" class="java.lang.Integer">44</attribute>
			<attribute name="bigCityDweller" class="java.lang.Boolean">false</attribute>
			<attribute name="bikeAvailable" class="java.lang.Boolean">true</attribute>
			<attribute name="carAvail" class="java.lang.String">always</attribute>
			<attribute name="carParkingAtWork" class="java.lang.Boolean">true</attribute>
			<attribute name="childrenInHousehold" class="java.lang.Integer">0</attribute>
			<attribute name="employed" class="java.lang.Boolean">true</attribute>
			<attribute name="fullTimeWork" class="java.lang.Boolean">true</attribute>
			<attribute name="fzg_e_rad" class="java.lang.Integer">0</attribute>
			<attribute name="fzg_mot" class="java.lang.Integer">1</attribute>
			<attribute name="fzg_pkw" class="java.lang.Integer">1</attribute>
			<attribute name="fzg_radges" class="java.lang.Integer">1</attribute>
			<attribute name="hasLicense" class="java.lang.String">yes</attribute>
			<attribute name="hgr_kat" class="java.lang.Integer">1</attribute>
			<attribute name="hh_carsharing" class="java.lang.Integer">2</attribute>
			<attribute name="hh_gr" class="java.lang.Integer">1</attribute>
			<attribute name="hh_gr617" class="java.lang.Integer">0</attribute>
			<attribute name="hh_gru6" class="java.lang.Integer">0</attribute>
			<attribute name="hh_grue18" class="java.lang.Integer">1</attribute>
			<attribute name="hh_hochrechnungsfaktor" class="java.lang.Double">2177.3840583136043</attribute>
			<attribute name="hh_nr" class="java.lang.String">10652-0</attribute>
			<attribute name="hh_oev_bahn" class="java.lang.Integer">1</attribute>
			<attribute name="hh_oev_bus" class="java.lang.Integer">1</attribute>
			<attribute name="hh_oev_entf" class="java.lang.Integer">10</attribute>
			<attribute name="hh_oev_entf_kat" class="java.lang.Integer">2</attribute>
			<attribute name="hh_oev_strb" class="java.lang.Integer">2</attribute>
			<attribute name="hh_oev_ubahn" class="java.lang.Integer">2</attribute>
			<attribute name="hh_wirtschsituation" class="java.lang.Integer">3</attribute>
			<attribute name="hh_wohnbdl" class="java.lang.Integer">3</attribute>
			<attribute name="hh_wohnbezirk" class="java.lang.Integer">304</attribute>
			<attribute name="hh_wohngemeinde" class="java.lang.Integer">30401</attribute>
			<attribute name="hh_wohnraumtyp" class="java.lang.Integer">3</attribute>
			<attribute name="hid" class="java.lang.String">10652-0#10</attribute>
			<attribute name="highEducation" class="java.lang.Boolean">false</attribute>
			<attribute name="highIncome" class="java.lang.Boolean">false</attribute>
			<attribute name="hzone" class="java.lang.Integer">30401</attribute>
			<attribute name="internalTrafficOnly" class="java.lang.Boolean">true</attribute>
			<attribute name="pers_alter" class="java.lang.Integer">44</attribute>
			<attribute name="pers_alter_kat" class="java.lang.Integer">5</attribute>
			<attribute name="pers_arbeit_parkpl" class="java.lang.Integer">1</attribute>
			<attribute name="pers_arbeitflex" class="java.lang.Integer">2</attribute>
			<attribute name="pers_arbeitsstd" class="java.lang.Double">38.5</attribute>
			<attribute name="pers_arbeittele" class="java.lang.Integer">2</attribute>
			<attribute name="pers_beruf" class="java.lang.Integer">2</attribute>
			<attribute name="pers_betr_andere" class="java.lang.Integer">2</attribute>
			<attribute name="pers_betr_kind" class="java.lang.Integer">1</attribute>
			<attribute name="pers_betr_verwandte" class="java.lang.Integer">2</attribute>
			<attribute name="pers_bildung" class="java.lang.Integer">3</attribute>
			<attribute name="pers_fahrrad" class="java.lang.Integer">1</attribute>
			<attribute name="pers_fs_krad" class="java.lang.Integer">1</attribute>
			<attribute name="pers_fs_pkw" class="java.lang.Integer">1</attribute>
			<attribute name="pers_geschlecht" class="java.lang.Integer">1</attribute>
			<attribute name="pers_hochrechnungsfaktor" class="java.lang.Double">5674.250589549514</attribute>
			<attribute name="pers_krad" class="java.lang.Integer">1</attribute>
			<attribute name="pers_navi_andere" class="java.lang.Integer">1</attribute>
			<attribute name="pers_navi_oev" class="java.lang.Integer">1</attribute>
			<attribute name="pers_navi_pkw" class="java.lang.Integer">1</attribute>
			<attribute name="pers_nr" class="java.lang.Integer">1</attribute>
			<attribute name="pers_oev_ermaessigung" class="java.lang.Integer">2</attribute>
			<attribute name="pers_oev_zeitkarte" class="java.lang.Integer">2</attribute>
			<attribute name="pers_pkw" class="java.lang.Integer">1</attribute>
			<attribute name="perstag_hochrechnungsfaktor_herbst_werktag" class="java.lang.Double">0.0</attribute>
			<attribute name="perstag_hochrechnungsfaktor_samstag" class="java.lang.Double">0.0</attribute>
			<attribute name="perstag_hochrechnungsfaktor_sonntag" class="java.lang.Double">0.0</attribute>
			<attribute name="perstag_hochrechnungsfaktor_werktag" class="java.lang.Double">4217.330127940447</attribute>
			<attribute name="perstag_hochrechnungsfaktor_woche" class="java.lang.Double">2900.840309782772</attribute>
			<attribute name="perstag_jahr" class="java.lang.Integer">2014</attribute>
			<attribute name="perstag_jzeit" class="java.lang.Integer">2</attribute>
			<attribute name="perstag_mobil" class="java.lang.Integer">1</attribute>
			<attribute name="perstag_stnr" class="java.lang.Integer">1</attribute>
			<attribute name="perstag_tag" class="java.lang.Integer">3</attribute>
			<attribute name="perstag_weganz" class="java.lang.Integer">4</attribute>
			<attribute name="perstag_wegdauer" class="java.lang.Double">45.0</attribute>
			<attribute name="perstag_weglaenge" class="java.lang.Double">21.2</attribute>
			<attribute name="perstag_wttyp" class="java.lang.Integer">1</attribute>
			<attribute name="sex" class="java.lang.String">m</attribute>
			<attribute name="singleHousehold" class="java.lang.Boolean">true</attribute>
			<attribute name="transitConcession" class="java.lang.Boolean">false</attribute>
			<attribute name="transitSeasonTicket" class="java.lang.Boolean">false</attribute>
			<attribute name="x" class="java.lang.String">x</attribute>
		</attributes>
		<plan selected="yes">
			<activity type="home" x="618921.0741137372" y="438998.22454686806" start_time="00:00:00" end_time="07:47:41" >
			</activity>
			<leg mode="car" trav_time="00:08:00">
				<attributes>
					<attribute name="trafficType" class="java.lang.String">inside</attribute>
				</attributes>
			</leg>
			<activity type="shopping" x="617463.4704464488" y="441217.39281964116" start_time="07:55:41" end_time="09:10:35" >
			</activity>
			<leg mode="carpoolingDriver" trav_time="00:09:00">
				<attributes>
					<attribute name="trafficType" class="java.lang.String">inside</attribute>
				</attributes>
			</leg>
			<activity type="home" x="618921.0741137372" y="438998.22454686806" start_time="09:19:35" end_time="14:13:55" >
			</activity>
			<leg mode="car" trav_time="00:13:00">
				<attributes>
					<attribute name="trafficType" class="java.lang.String">inside</attribute>
				</attributes>
			</leg>
			<activity type="home" x="622029.358189691" y="442005.90844223025" start_time="14:26:55" end_time="22:18:18" >
			</activity>
			<leg mode="car" trav_time="00:15:00">
				<attributes>
					<attribute name="trafficType" class="java.lang.String">inside</attribute>
				</attributes>
			</leg>
			<activity type="home" x="618921.0741137372" y="438998.22454686806" start_time="22:33:18" end_time="24:00:00" >
			</activity>
		</plan>

	</person>

<!-- ====================================================================== -->

	<person id="11452-0_3_2#2">
		<attributes>
			<attribute name="age" class="java.lang.Integer">23</attribute>
			<attribute name="bigCityDweller" class="java.lang.Boolean">true</attribute>
			<attribute name="bikeAvailable" class="java.lang.Boolean">true</attribute>
			<attribute name="carAvail" class="java.lang.String">always</attribute>
			<attribute name="carParkingAtWork" class="java.lang.Boolean">true</attribute>
			<attribute name="childrenInHousehold" class="java.lang.Integer">0</attribute>
			<attribute name="employed" class="java.lang.Boolean">true</attribute>
			<attribute name="fullTimeWork" class="java.lang.Boolean">false</attribute>
			<attribute name="fzg_e_rad" class="java.lang.Integer">-90</attribute>
			<attribute name="fzg_mot" class="java.lang.Integer">1</attribute>
			<attribute name="fzg_pkw" class="java.lang.Integer">3</attribute>
			<attribute name="fzg_radges" class="java.lang.Integer">2</attribute>
			<attribute name="hasLicense" class="java.lang.String">yes</attribute>
			<attribute name="hgr_kat" class="java.lang.Integer">3</attribute>
			<attribute name="hh_carsharing" class="java.lang.Integer">2</attribute>
			<attribute name="hh_gr" class="java.lang.Integer">3</attribute>
			<attribute name="hh_gr617" class="java.lang.Integer">0</attribute>
			<attribute name="hh_gru6" class="java.lang.Integer">0</attribute>
			<attribute name="hh_grue18" class="java.lang.Integer">3</attribute>
			<attribute name="hh_hochrechnungsfaktor" class="java.lang.Double">105.6581247872968</attribute>
			<attribute name="hh_nr" class="java.lang.String">11452-0</attribute>
			<attribute name="hh_oev_bahn" class="java.lang.Integer">2</attribute>
			<attribute name="hh_oev_bus" class="java.lang.Integer">1</attribute>
			<attribute name="hh_oev_entf" class="java.lang.Integer">1</attribute>
			<attribute name="hh_oev_entf_kat" class="java.lang.Integer">1</attribute>
			<attribute name="hh_oev_strb" class="java.lang.Integer">2</attribute>
			<attribute name="hh_oev_ubahn" class="java.lang.Integer">2</attribute>
			<attribute name="hh_wirtschsituation" class="java.lang.Integer">3</attribute>
			<attribute name="hh_wohnbdl" class="java.lang.Integer">9</attribute>
			<attribute name="hh_wohnbezirk" class="java.lang.Integer">923</attribute>
			<attribute name="hh_wohngemeinde" class="java.lang.Integer">92301</attribute>
			<attribute name="hh_wohnraumtyp" class="java.lang.Integer">1</attribute>
			<attribute name="hid" class="java.lang.String">11452-0#2</attribute>
			<attribute name="highEducation" class="java.lang.Boolean">false</attribute>
			<attribute name="highIncome" class="java.lang.Boolean">false</attribute>
			<attribute name="hzone" class="java.lang.Integer">92301</attribute>
			<attribute name="internalTrafficOnly" class="java.lang.Boolean">true</attribute>
			<attribute name="pers_alter" class="java.lang.Integer">23</attribute>
			<attribute name="pers_alter_kat" class="java.lang.Integer">3</attribute>
			<attribute name="pers_arbeit_parkpl" class="java.lang.Integer">1</attribute>
			<attribute name="pers_arbeitflex" class="java.lang.Integer">2</attribute>
			<attribute name="pers_arbeitsstd" class="java.lang.Double">30.0</attribute>
			<attribute name="pers_arbeittele" class="java.lang.Integer">2</attribute>
			<attribute name="pers_beruf" class="java.lang.Integer">2</attribute>
			<attribute name="pers_betr_andere" class="java.lang.Integer">2</attribute>
			<attribute name="pers_betr_kind" class="java.lang.Integer">2</attribute>
			<attribute name="pers_betr_verwandte" class="java.lang.Integer">2</attribute>
			<attribute name="pers_bildung" class="java.lang.Integer">3</attribute>
			<attribute name="pers_fahrrad" class="java.lang.Integer">1</attribute>
			<attribute name="pers_fs_krad" class="java.lang.Integer">1</attribute>
			<attribute name="pers_fs_pkw" class="java.lang.Integer">1</attribute>
			<attribute name="pers_geschlecht" class="java.lang.Integer">1</attribute>
			<attribute name="pers_hochrechnungsfaktor" class="java.lang.Double">360.9259620391753</attribute>
			<attribute name="pers_krad" class="java.lang.Integer">1</attribute>
			<attribute name="pers_navi_andere" class="java.lang.Integer">2</attribute>
			<attribute name="pers_navi_oev" class="java.lang.Integer">2</attribute>
			<attribute name="pers_navi_pkw" class="java.lang.Integer">1</attribute>
			<attribute name="pers_nr" class="java.lang.Integer">3</attribute>
			<attribute name="pers_oev_ermaessigung" class="java.lang.Integer">2</attribute>
			<attribute name="pers_oev_zeitkarte" class="java.lang.Integer">2</attribute>
			<attribute name="pers_pkw" class="java.lang.Integer">1</attribute>
			<attribute name="perstag_hochrechnungsfaktor_herbst_werktag" class="java.lang.Double">0.0</attribute>
			<attribute name="perstag_hochrechnungsfaktor_samstag" class="java.lang.Double">0.0</attribute>
			<attribute name="perstag_hochrechnungsfaktor_sonntag" class="java.lang.Double">0.0</attribute>
			<attribute name="perstag_hochrechnungsfaktor_werktag" class="java.lang.Double">299.1926584429242</attribute>
			<attribute name="perstag_hochrechnungsfaktor_woche" class="java.lang.Double">205.79610741219105</attribute>
			<attribute name="perstag_jahr" class="java.lang.Integer">2014</attribute>
			<attribute name="perstag_jzeit" class="java.lang.Integer">4</attribute>
			<attribute name="perstag_mobil" class="java.lang.Integer">1</attribute>
			<attribute name="perstag_stnr" class="java.lang.Integer">2</attribute>
			<attribute name="perstag_tag" class="java.lang.Integer">5</attribute>
			<attribute name="perstag_weganz" class="java.lang.Integer">4</attribute>
			<attribute name="perstag_wegdauer" class="java.lang.Double">70.0</attribute>
			<attribute name="perstag_weglaenge" class="java.lang.Double">36.96</attribute>
			<attribute name="perstag_wttyp" class="java.lang.Integer">1</attribute>
			<attribute name="sex" class="java.lang.String">m</attribute>
			<attribute name="singleHousehold" class="java.lang.Boolean">false</attribute>
			<attribute name="transitConcession" class="java.lang.Boolean">false</attribute>
			<attribute name="transitSeasonTicket" class="java.lang.Boolean">false</attribute>
			<attribute name="x" class="java.lang.String">x</attribute>
		</attributes>
		<plan selected="yes">
			<activity type="home" x="619801.4454723567" y="474370.9685728082" start_time="00:00:00" end_time="05:40:05" >
			</activity>
			<leg mode="car" trav_time="00:20:00">
				<attributes>
					<attribute name="trafficType" class="java.lang.String">inside</attribute>
				</attributes>
			</leg>
			<activity type="work" x="612829.6258557059" y="474260.4396520463" start_time="06:00:05" end_time="11:03:11" >
			</activity>
			<leg mode="carpoolingDriver" trav_time="00:20:00">
				<attributes>
					<attribute name="trafficType" class="java.lang.String">inside</attribute>
				</attributes>
			</leg>
			<activity type="home" x="619801.4454723567" y="474370.9685728082" start_time="11:23:11" end_time="18:38:32" >
			</activity>
			<leg mode="car" trav_time="00:15:00">
				<attributes>
					<attribute name="trafficType" class="java.lang.String">inside</attribute>
				</attributes>
			</leg>
			<activity type="leisure" x="621157.8376188625" y="469554.6447781418" start_time="18:53:32" end_time="19:42:25" >
			</activity>
			<leg mode="car" trav_time="00:15:00">
				<attributes>
					<attribute name="trafficType" class="java.lang.String">inside</attribute>
				</attributes>
			</leg>
			<activity type="home" x="619801.4454723567" y="474370.9685728082" start_time="19:57:25" end_time="24:00:00" >
			</activity>
		</plan>

	</person>

<!-- ====================================================================== -->

	<person id="12488-5_1_2#1">
		<attributes>
			<attribute name="age" class="java.lang.Integer">68</attribute>
			<attribute name="bigCityDweller" class="java.lang.Boolean">false</attribute>
			<attribute name="bikeAvailable" class="java.lang.Boolean">false</attribute>
			<attribute name="carAvail" class="java.lang.String">sometimes</attribute>
			<attribute name="carParkingAtWork" class="java.lang.Boolean">false</attribute>
			<attribute name="childrenInHousehold" class="java.lang.Integer">0</attribute>
			<attribute name="employed" class="java.lang.Boolean">false</attribute>
			<attribute name="fullTimeWork" class="java.lang.Boolean">false</attribute>
			<attribute name="fzg_e_rad" class="java.lang.Integer">0</attribute>
			<attribute name="fzg_mot" class="java.lang.Integer">0</attribute>
			<attribute name="fzg_pkw" class="java.lang.Integer">1</attribute>
			<attribute name="fzg_radges" class="java.lang.Integer">0</attribute>
			<attribute name="hasLicense" class="java.lang.String">yes</attribute>
			<attribute name="hgr_kat" class="java.lang.Integer">1</attribute>
			<attribute name="hh_carsharing" class="java.lang.Integer">2</attribute>
			<attribute name="hh_gr" class="java.lang.Integer">1</attribute>
			<attribute name="hh_gr617" class="java.lang.Integer">0</attribute>
			<attribute name="hh_gru6" class="java.lang.Integer">0</attribute>
			<attribute name="hh_grue18" class="java.lang.Integer">1</attribute>
			<attribute name="hh_hochrechnungsfaktor" class="java.lang.Double">7.8331713659405295</attribute>
			<attribute name="hh_nr" class="java.lang.String">12488-5</attribute>
			<attribute name="hh_oev_bahn" class="java.lang.Integer">2</attribute>
			<attribute name="hh_oev_bus" class="java.lang.Integer">1</attribute>
			<attribute name="hh_oev_entf" class="java.lang.Integer">3</attribute>
			<attribute name="hh_oev_entf_kat" class="java.lang.Integer">1</attribute>
			<attribute name="hh_oev_strb" class="java.lang.Integer">2</attribute>
			<attribute name="hh_oev_ubahn" class="java.lang.Integer">2</attribute>
			<attribute name="hh_wirtschsituation" class="java.lang.Integer">3</attribute>
			<attribute name="hh_wohnbdl" class="java.lang.Integer">3</attribute>
			<attribute name="hh_wohnbezirk" class="java.lang.Integer">323</attribute>
			<attribute name="hh_wohngemeinde" class="java.lang.Integer">32305</attribute>
			<attribute name="hh_wohnraumtyp" class="java.lang.Integer">4</attribute>
			<attribute name="hid" class="java.lang.String">12488-5#1</attribute>
			<attribute name="highEducation" class="java.lang.Boolean">false</attribute>
			<attribute name="highIncome" class="java.lang.Boolean">false</attribute>
			<attribute name="hzone" class="java.lang.Integer">32305</attribute>
			<attribute name="internalTrafficOnly" class="java.lang.Boolean">true</attribute>
			<attribute name="pers_alter" class="java.lang.Integer">68</attribute>
			<attribute name="pers_alter_kat" class="java.lang.Integer">8</attribute>
			<attribute name="pers_arbeit_parkpl" class="java.lang.Integer">-93</attribute>
			<attribute name="pers_arbeitflex" class="java.lang.Integer">-93</attribute>
			<attribute name="pers_arbeitsstd" class="java.lang.Double">-93.0</attribute>
			<attribute name="pers_arbeittele" class="java.lang.Integer">-93</attribute>
			<attribute name="pers_beruf" class="java.lang.Integer">3</attribute>
			<attribute name="pers_betr_andere" class="java.lang.Integer">2</attribute>
			<attribute name="pers_betr_kind" class="java.lang.Integer">2</attribute>
			<attribute name="pers_betr_verwandte" class="java.lang.Integer">2</attribute>
			<attribute name="pers_bildung" class="java.lang.Integer">3</attribute>
			<attribute name="pers_fahrrad" class="java.lang.Integer">2</attribute>
			<attribute name="pers_fs_krad" class="java.lang.Integer">2</attribute>
			<attribute name="pers_fs_pkw" class="java.lang.Integer">1</attribute>
			<attribute name="pers_geschlecht" class="java.lang.Integer">2</attribute>
			<attribute name="pers_hochrechnungsfaktor" class="java.lang.Double">15.288056267598044</attribute>
			<attribute name="pers_krad" class="java.lang.Integer">-90</attribute>
			<attribute name="pers_navi_andere" class="java.lang.Integer">1</attribute>
			<attribute name="pers_navi_oev" class="java.lang.Integer">2</attribute>
			<attribute name="pers_navi_pkw" class="java.lang.Integer">2</attribute>
			<attribute name="pers_nr" class="java.lang.Integer">1</attribute>
			<attribute name="pers_oev_ermaessigung" class="java.lang.Integer">2</attribute>
			<attribute name="pers_oev_zeitkarte" class="java.lang.Integer">2</attribute>
			<attribute name="pers_pkw" class="java.lang.Integer">2</attribute>
			<attribute name="perstag_hochrechnungsfaktor_herbst_werktag" class="java.lang.Double">38.17284410216385</attribute>
			<attribute name="perstag_hochrechnungsfaktor_samstag" class="java.lang.Double">0.0</attribute>
			<attribute name="perstag_hochrechnungsfaktor_sonntag" class="java.lang.Double">0.0</attribute>
			<attribute name="perstag_hochrechnungsfaktor_werktag" class="java.lang.Double">9.77109042691676</attribute>
			<attribute name="perstag_hochrechnungsfaktor_woche" class="java.lang.Double">6.720928198896955</attribute>
			<attribute name="perstag_jahr" class="java.lang.Integer">2014</attribute>
			<attribute name="perstag_jzeit" class="java.lang.Integer">3</attribute>
			<attribute name="perstag_mobil" class="java.lang.Integer">1</attribute>
			<attribute name="perstag_stnr" class="java.lang.Integer">2</attribute>
			<attribute name="perstag_tag" class="java.lang.Integer">5</attribute>
			<attribute name="perstag_weganz" class="java.lang.Integer">4</attribute>
			<attribute name="perstag_wegdauer" class="java.lang.Double">39.0</attribute>
			<attribute name="perstag_weglaenge" class="java.lang.Double">19.879999935627</attribute>
			<attribute name="perstag_wttyp" class="java.lang.Integer">1</attribute>
			<attribute name="sex" class="java.lang.String">f</attribute>
			<attribute name="singleHousehold" class="java.lang.Boolean">true</attribute>
			<attribute name="transitConcession" class="java.lang.Boolean">false</attribute>
			<attribute name="transitSeasonTicket" class="java.lang.Boolean">false</attribute>
			<attribute name="x" class="java.lang.String">x</attribute>
		</attributes>
		<plan selected="yes">
			<activity type="home" x="618231.0938753912" y="446332.35181871755" start_time="00:00:00" end_time="08:31:09" >
			</activity>
			<leg mode="car" trav_time="00:10:00">
				<attributes>
					<attribute name="trafficType" class="java.lang.String">inside</attribute>
				</attributes>
			</leg>