<?xml version="1.0" encoding="utf-8"?>
<!DOCTYPE population SYSTEM "http://www.matsim.org/files/dtd/population_v6.dtd">

<population>
    <attributes>
        <attribute name="coordinateReferenceSystem" class="java.lang.String">epsg:31256</attribute>
    </attributes>

    <!-- for most persons: home = Universumstraße # Gasteigergasse, work = Pasettistraße # Schottenaugasse -> beeline 931m -->
    <!-- expected travel time for bike: ~303 seconds: (931 m * 1.3) / 4 m/s -->
    <person id="person1_car">
        <attributes>
            <attribute class="java.lang.Integer" name="age">38</attribute>
            <attribute class="java.lang.Boolean" name="bikeAvailable">false</attribute>
            <attribute class="java.lang.String" name="drsAffinity">none</attribute>
            <attribute class="java.lang.String" name="carAvail">always</attribute>
            <attribute class="java.lang.Boolean" name="carParkingAtWork">true</attribute>
            <attribute class="java.lang.String" name="hasLicense">yes</attribute>
            <attribute class="java.lang.Boolean" name="employed">true</attribute>
            <attribute class="java.lang.String" name="sex">m</attribute>
            <attribute class="java.lang.Boolean" name="transitConcession">false</attribute>
            <attribute class="java.lang.Boolean" name="transitSeasonTicket">false</attribute>
        </attributes>
        <plan selected="yes">
            <activity type="home" link="368" x="3700.456" y="343947.606" end_time="07:20:00" />
            <leg mode="car" />
            <activity type="work" link="152" x="3360.657" y="344813.230" start_time="07:40:00" end_time="17:30:00" />
            <leg mode="car" />
            <activity type="home" link="368" x="3700.456" y="343947.606" start_time="17:50:00" />
        </plan>
    </person>
    <person id="person2_car+bike">
        <attributes>
            <attribute class="java.lang.Boolean" name="bikeAvailable">true</attribute>
            <attribute class="java.lang.String" name="drsAffinity">none</attribute>
            <attribute class="java.lang.String" name="carAvail">always</attribute>
            <attribute class="java.lang.String" name="hasLicense">yes</attribute>
            <attribute class="java.lang.Boolean" name="transitSeasonTicket">false</attribute>
        </attributes>
        <plan selected="yes">
            <activity type="home" link="368" x="3700.456" y="343947.606" end_time="07:20:00" />
            <leg mode="car" />
            <activity type="work" link="152" x="3360.657" y="344813.230" start_time="07:40:00" end_time="17:30:00" />
            <leg mode="bike" />
            <activity type="home" link="368" x="3700.456" y="343947.606" start_time="17:50:00" />
        </plan>
    </person>
    <person id="person3_bike">
        <attributes>
            <attribute class="java.lang.String" name="drsAffinity">none</attribute>
            <attribute class="java.lang.Boolean" name="bikeAvailable">true</attribute>
            <attribute class="java.lang.Boolean" name="carAvailable">false</attribute>
            <attribute class="java.lang.String" name="carAvail">never</attribute>
            <attribute class="java.lang.String" name="hasLicense">no</attribute>
            <attribute class="java.lang.Boolean" name="transitSeasonTicket">false</attribute>
        </attributes>
        <plan selected="yes">
            <activity type="home" link="368" x="3700.456" y="343947.606" end_time="07:20:00" />
            <leg mode="bike" />
            <activity type="work" link="152" x="3360.657" y="344813.230" start_time="07:42:34" end_time="17:30:00" />
            <leg mode="bike" />
            <activity type="home" link="368" x="3700.456" y="343947.606" start_time="17:50:00" />
        </plan>
    </person>
    <person id="person4_pt">
        <!-- for this person: home = Fultonstraße # An der oberen alten Donau, work = Universumstraße # Hellwagstraße -->
        <!-- should use 33A and 31 to get to work -->
        <attributes>
            <attribute class="java.lang.String" name="drsAffinity">none</attribute>
            <attribute class="java.lang.Boolean" name="bikeAvailable">false</attribute>
            <attribute class="java.lang.Boolean" name="carAvailable">false</attribute>
            <attribute class="java.lang.String" name="carAvail">never</attribute>
            <attribute class="java.lang.String" name="hasLicense">no</attribute>
            <attribute class="java.lang.Boolean" name="transitSeasonTicket">true</attribute>
        </attributes>
        <plan selected="yes">
            <activity type="home" link="112" x="5826.522971510246" y="345633.1825425653" end_time="07:20:00" />
            <leg mode="pt" />
            <activity type="work" link="1243" x="3407.819979282155" y="344207.6488325801" start_time="07:55:00" end_time="17:20:00" />
            <leg mode="pt" />
            <activity type="home" link="112" x="5826.522971510246" y="345633.1825425653" start_time="17:50:00" />
        </plan>
    </person>
    <!--  for persons below: -->
    <!-- home = Fultonstraße # An der oberen alten Donau -->
    <!-- work = Universumstraße # Hellwagstraße -->
    <!-- shopping = Dresdner Straße # Hellwagstraße -->
    <!-- leisure = Millennium City Hellwegstraße # Wehlistraße -->
    <!-- errand = Wildbadgasse # Sandrockgasse -->
    <person id="person_HH">
        <attributes>
            <attribute class="java.lang.Boolean" name="bikeAvailable">true</attribute>
            <attribute class="java.lang.String" name="drsAffinity">driverOrRider</attribute>
            <attribute class="java.lang.String" name="carAvail">always</attribute>
            <attribute class="java.lang.String" name="hasLicense">yes</attribute>
            <attribute class="java.lang.Boolean" name="transitSeasonTicket">true</attribute>
        </attributes>
        <plan selected="yes">
            <activity type="home" link="112" x="5826.522971510246" y="345633.1825425653" end_time="07:20:00" />
            <leg mode="walk" />
            <activity type="home" link="112" x="5826.522971510246" y="345633.1825425653" start_time="09:00:00" />
        </plan>
    </person>
    <person id="person_HW">
        <attributes>
            <attribute class="java.lang.Boolean" name="bikeAvailable">true</attribute>
            <attribute class="java.lang.String" name="drsAffinity">driverOrRider</attribute>
            <attribute class="java.lang.String" name="carAvail">always</attribute>
            <attribute class="java.lang.String" name="hasLicense">yes</attribute>
            <attribute class="java.lang.Boolean" name="transitSeasonTicket">true</attribute>
        </attributes>
        <plan selected="yes">
            <activity type="home" link="112" x="5826.522971510246" y="345633.1825425653" end_time="07:20:00" />
            <leg mode="pt" />
            <activity type="work" link="1243" x="3407.819979282155" y="344207.6488325801" start_time="07:55:00" />
        </plan>
    </person>
    <person id="person_HWH">
        <attributes>
            <attribute class="java.lang.Boolean" name="bikeAvailable">true</attribute>
            <attribute class="java.lang.String" name="drsAffinity">driverOrRider</attribute>
            <attribute class="java.lang.String" name="carAvail">always</attribute>
            <attribute class="java.lang.String" name="hasLicense">yes</attribute>
            <attribute class="java.lang.Boolean" name="transitSeasonTicket">true</attribute>
        </attributes>
        <plan selected="yes">
            <activity type="home" link="112" x="5826.522971510246" y="345633.1825425653" end_time="07:20:00" />
            <leg mode="car" />
            <activity type="work" link="1243" x="3407.819979282155" y="344207.6488325801" start_time="07:55:00" end_time="17:20:00" />
            <leg mode="car" />
            <activity type="home" link="112" x="5826.522971510246" y="345633.1825425653" start_time="17:55:00" />
        </plan>
    </person>
    <person id="person_HWSH">
        <attributes>
            <attribute class="java.lang.Boolean" name="bikeAvailable">true</attribute>
            <attribute class="java.lang.String" name="drsAffinity">driverOrRider</attribute>
            <attribute class="java.lang.String" name="carAvail">always</attribute>
            <attribute class="java.lang.String" name="hasLicense">yes</attribute>
            <attribute class="java.lang.Boolean" name="transitSeasonTicket">true</attribute>
        </attributes>
        <plan selected="yes">
            <activity type="home" link="112" x="5826.522971510246" y="345633.1825425653" end_time="07:20:00" />
            <leg mode="pt" />
            <activity type="work" link="1243" x="3407.819979282155" y="344207.6488325801" start_time="07:55:00" end_time="17:20:00" />
            <leg mode="pt" />
            <activity type="shopping" link="1454" x="3528.2913587768717" y="344292.58067743015" start_time="18:30:00" end_time="18:45:00" />
            <leg mode="pt" />
            <activity type="home" link="112" x="5826.522971510246" y="345633.1825425653" start_time="19:00:00" />
        </plan>
    </person>
    <person id="person_HWLH">
        <attributes>
            <attribute class="java.lang.Boolean" name="bikeAvailable">true</attribute>
            <attribute class="java.lang.String" name="drsAffinity">driverOrRider</attribute>
            <attribute class="java.lang.String" name="carAvail">always</attribute>
            <attribute class="java.lang.String" name="hasLicense">yes</attribute>
            <attribute class="java.lang.Boolean" name="transitSeasonTicket">true</attribute>
        </attributes>
        <plan selected="yes">
            <activity type="home" link="112" x="5826.522971510246" y="345633.1825425653" end_time="07:20:00" />
            <leg mode="pt" />
            <activity type="work" link="1243" x="3407.819979282155" y="344207.6488325801" start_time="07:55:00" end_time="17:20:00" />
            <leg mode="pt" />
            <activity type="leisure" link="412" x="4029.432712152412" y="344641.5643821964" start_time="18:30:00" end_time="18:45:00" />
            <leg mode="pt" />
            <activity type="home" link="112" x="5826.522971510246" y="345633.1825425653" start_time="19:00:00" />
        </plan>
    </person>
    <person id="person_WLW">
        <attributes>
            <attribute class="java.lang.Boolean" name="bikeAvailable">true</attribute>
            <attribute class="java.lang.String" name="drsAffinity">driverOrRider</attribute>
            <attribute class="java.lang.String" name="carAvail">always</attribute>
            <attribute class="java.lang.String" name="hasLicense">yes</attribute>
            <attribute class="java.lang.Boolean" name="transitSeasonTicket">true</attribute>
        </attributes>
        <plan selected="yes">
            <activity type="work" link="1243" x="3407.819979282155" y="344207.6488325801" start_time="07:55:00" end_time="17:20:00" />
            <leg mode="pt" />
            <activity type="leisure" link="412" x="4029.432712152412" y="344641.5643821964" start_time="18:30:00" end_time="18:45:00" />
            <leg mode="pt" />
            <activity type="work" link="1243" x="3407.819979282155" y="344207.6488325801" start_time="19:00:00" />
        </plan>
    </person>
    <person id="person_HWHSH">
        <attributes>
            <attribute class="java.lang.Boolean" name="bikeAvailable">true</attribute>
            <attribute class="java.lang.String" name="drsAffinity">driverOrRider</attribute>
            <attribute class="java.lang.String" name="carAvail">always</attribute>
            <attribute class="java.lang.String" name="hasLicense">yes</attribute>
            <attribute class="java.lang.Boolean" name="transitSeasonTicket">true</attribute>
        </attributes>
        <plan selected="yes">
            <activity type="home" link="112" x="5826.522971510246" y="345633.1825425653" end_time="07:20:00" />
            <leg mode="pt" />
            <activity type="work" link="1243" x="3407.819979282155" y="344207.6488325801" start_time="07:55:00" end_time="16:00:00" />
            <leg mode="pt" />
            <activity type="home" link="112" x="5826.522971510246" y="345633.1825425653" start_time="16:30:00" end_time="18:00:00" />
            <leg mode="pt" />
            <activity type="shopping" link="1454" x="3528.2913587768717" y="344292.58067743015" start_time="18:30:00" end_time="18:45:00" />
            <leg mode="pt" />
            <activity type="home" link="112" x="5826.522971510246" y="345633.1825425653" start_time="19:00:00" />
        </plan>
    </person>
    <person id="person_HWHSH_differentMiddleHome">
        <attributes>
            <attribute class="java.lang.Boolean" name="bikeAvailable">true</attribute>
            <attribute class="java.lang.String" name="drsAffinity">driverOrRider</attribute>
            <attribute class="java.lang.String" name="carAvail">always</attribute>
            <attribute class="java.lang.String" name="hasLicense">yes</attribute>
            <attribute class="java.lang.Boolean" name="transitSeasonTicket">true</attribute>
        </attributes>
        <plan selected="yes">
            <activity type="home" link="112" x="5826.522971510246" y="345633.1825425653" end_time="07:20:00" />
            <leg mode="pt" />
            <activity type="work" link="1243" x="3407.819979282155" y="344207.6488325801" start_time="07:55:00" end_time="16:00:00" />
            <leg mode="pt" />
            <activity type="home" link="999" x="5159.932365160211" y="344883.8349236697" start_time="16:30:00" end_time="18:00:00" />
            <leg mode="pt" />
            <activity type="shopping" link="1454" x="3528.2913587768717" y="344292.58067743015" start_time="18:30:00" end_time="18:45:00" />
            <leg mode="pt" />
            <activity type="home" link="112" x="5826.522971510246" y="345633.1825425653" start_time="19:00:00" />
        </plan>
    </person>
    <person id="person_HWHEH">
        <attributes>
            <attribute class="java.lang.Boolean" name="bikeAvailable">true</attribute>
            <attribute class="java.lang.String" name="drsAffinity">driverOrRider</attribute>
            <attribute class="java.lang.String" name="carAvail">always</attribute>
            <attribute class="java.lang.String" name="hasLicense">yes</attribute>
            <attribute class="java.lang.Boolean" name="transitSeasonTicket">true</attribute>
        </attributes>
        <plan selected="yes">
            <activity type="home" link="112" x="5826.522971510246" y="345633.1825425653" end_time="07:20:00" />
            <leg mode="pt" />
            <activity type="work" link="1243" x="3407.819979282155" y="344207.6488325801" start_time="07:55:00" end_time="16:00:00" />
            <leg mode="pt" />
            <activity type="home" link="112" x="5826.522971510246" y="345633.1825425653" start_time="16:30:00" end_time="18:00:00" />
            <leg mode="pt" />
            <activity type="errand" link="881" x="5780.6051735365245" y="345107.3022131631" start_time="18:30:00" end_time="18:45:00" />
            <leg mode="pt" />
            <activity type="home" link="112" x="5826.522971510246" y="345633.1825425653" start_time="19:00:00" />
        </plan>
    </person>
    <person id="person_HWSWH">
        <attributes>
            <attribute class="java.lang.Boolean" name="bikeAvailable">true</attribute>
            <attribute class="java.lang.String" name="drsAffinity">driverOrRider</attribute>
            <attribute class="java.lang.String" name="carAvail">always</attribute>
            <attribute class="java.lang.String" name="hasLicense">yes</attribute>
            <attribute class="java.lang.Boolean" name="transitSeasonTicket">true</attribute>
        </attributes>
        <plan selected="yes">
            <activity type="home" link="112" x="5826.522971510246" y="345633.1825425653" end_time="07:20:00" />
            <leg mode="pt" />
            <activity type="work" link="1243" x="3407.819979282155" y="344207.6488325801" start_time="07:55:00" end_time="14:50:00" />
            <leg mode="walk" />
            <activity type="shopping" link="1454" x="3528.2913587768717" y="344292.58067743015" start_time="15:00:00" end_time="15:10:00" />
            <leg mode="walk" />
            <activity type="work" link="1243" x="3407.819979282155" y="344207.6488325801" start_time="15:20:00" end_time="17:30:00" />
            <leg mode="pt" />
            <activity type="home" link="112" x="5826.522971510246" y="345633.1825425653" start_time="18:00:00" />
        </plan>
    </person>
    <person id="person_HLWLH">
        <attributes>
            <attribute class="java.lang.Boolean" name="bikeAvailable">true</attribute>
            <attribute class="java.lang.String" name="drsAffinity">driverOrRider</attribute>
            <attribute class="java.lang.String" name="carAvail">always</attribute>
            <attribute class="java.lang.String" name="hasLicense">yes</attribute>
            <attribute class="java.lang.Boolean" name="transitSeasonTicket">true</attribute>
        </attributes>
        <plan selected="yes">
            <activity type="home" link="112" x="5826.522971510246" y="345633.1825425653" end_time="07:20:00" />
            <leg mode="walk" />
            <activity type="leisure" link="60" x="5984.025473831973" y="345537.79770438" start_time="07:30:00" end_time="08:00:00" />
            <leg mode="pt" />
            <activity type="work" link="1243" x="3407.819979282155" y="344207.6488325801" start_time="08:30:00" end_time="15:30:00" />
            <leg mode="pt" />
            <activity type="leisure" link="938" x="5740.144824322723" y="345974.26082050893" start_time="16:00:00" end_time="17:00:00" />
            <leg mode="walk" />
            <activity type="home" link="112" x="5826.522971510246" y="345633.1825425653" start_time="17:30:00" />
        </plan>
    </person>
    <person id="person_HLWSWLH">
        <attributes>
            <attribute class="java.lang.Boolean" name="bikeAvailable">true</attribute>
            <attribute class="java.lang.String" name="drsAffinity">driverOrRider</attribute>
            <attribute class="java.lang.String" name="carAvail">always</attribute>
            <attribute class="java.lang.String" name="hasLicense">yes</attribute>
            <attribute class="java.lang.Boolean" name="transitSeasonTicket">true</attribute>
        </attributes>
        <plan selected="yes">
            <activity type="home" link="112" x="5826.522971510246" y="345633.1825425653" end_time="07:20:00" />
            <leg mode="walk" />
            <activity type="leisure" link="938" x="5740.144824322723" y="345974.26082050893" start_time="07:30:00" end_time="08:00:00" />
            <leg mode="pt" />
            <activity type="work" link="1243" x="3407.819979282155" y="344207.6488325801" start_time="08:30:00" end_time="14:45:00" />
            <leg mode="walk" />
            <activity type="shopping" link="1454" x="3528.2913587768717" y="344292.58067743015" start_time="15:00:00" end_time="15:10:00" />
            <leg mode="walk" />
            <activity type="work" link="1243" x="3407.819979282155" y="344207.6488325801" start_time="15:20:00" end_time="15:30:00" />
            <leg mode="pt" />
            <activity type="leisure" link="938" x="5740.144824322723" y="345974.26082050893" start_time="16:00:00" end_time="17:00:00" />
            <leg mode="walk" />
            <activity type="home" link="112" x="5826.522971510246" y="345633.1825425653" start_time="17:30:00" />
        </plan>
    </person>
    <person id="person_HWE">
        <attributes>
            <attribute class="java.lang.Boolean" name="bikeAvailable">true</attribute>
            <attribute class="java.lang.String" name="drsAffinity">driverOrRider</attribute>
            <attribute class="java.lang.String" name="carAvail">always</attribute>
            <attribute class="java.lang.String" name="hasLicense">yes</attribute>
            <attribute class="java.lang.Boolean" name="transitSeasonTicket">true</attribute>
        </attributes>
        <plan selected="yes">
            <activity type="home" link="112" x="5826.522971510246" y="345633.1825425653" end_time="07:20:00" />
            <leg mode="pt" />
            <activity type="work" link="1243" x="3407.819979282155" y="344207.6488325801" start_time="07:55:00" end_time="17:20:00" />
            <leg mode="walk" />
            <activity type="errand" link="881" x="5780.6051735365245" y="345107.3022131631" start_time="18:00:00" />
        </plan>
    </person>
    <person id="person_HEH">
        <attributes>
            <attribute class="java.lang.Boolean" name="bikeAvailable">true</attribute>
            <attribute class="java.lang.String" name="drsAffinity">driverOrRider</attribute>
            <attribute class="java.lang.String" name="carAvail">always</attribute>
            <attribute class="java.lang.String" name="hasLicense">yes</attribute>
            <attribute class="java.lang.Boolean" name="transitSeasonTicket">true</attribute>
        </attributes>
        <plan selected="yes">
            <activity type="home" link="112" x="5826.522971510246" y="345633.1825425653" end_time="07:20:00" />
            <leg mode="walk" />
            <activity type="errand" link="881" x="5780.6051735365245" y="345107.3022131631" start_time="07:55:00" end_time="08:05:00" />
            <leg mode="walk" />
            <activity type="home" link="112" x="5826.522971510246" y="345633.1825425653" start_time="19:00:00" />
        </plan>
    </person>
    <person id="person_leisureOverMidnight">
        <attributes>
            <attribute class="java.lang.Boolean" name="bikeAvailable">true</attribute>
            <attribute class="java.lang.String" name="drsAffinity">driverOrRider</attribute>
            <attribute class="java.lang.String" name="carAvail">always</attribute>
            <attribute class="java.lang.String" name="hasLicense">yes</attribute>
            <attribute class="java.lang.Boolean" name="transitSeasonTicket">true</attribute>
        </attributes>
        <plan selected="yes">
            <activity type="home" link="112" x="5826.522971510246" y="345633.1825425653" end_time="23:55:00" />
            <leg mode="pt" />
            <activity type="leisure" link="1243" x="3407.819979282155" y="344207.6488325801" start_time="23:55:00" end_time="01:00:00" />
            <!-- TODO shouldn't this be 25:00:00?-->
            <leg mode="pt" />
            <activity type="home" link="112" x="5826.522971510246" y="345633.1825425653" start_time="01:30:00" />
        </plan>
    </person>
</population>
