<?xml version="1.0" encoding="UTF-8"?>

<vehicleDefinitions xmlns="http://www.matsim.org/files/dtd"
 xmlns:xsi="http://www.w3.org/2001/XMLSchema-instance"
 xsi:schemaLocation="http://www.matsim.org/files/dtd http://www.matsim.org/files/dtd/vehicleDefinitions_v1.0.xsd">
	<!-- vehicle type for the average car (most will use petrol/diesel) to be used by the emission calculation (with HBEFA average export) -->
	<vehicleType id="car">
		<description>
			BEGIN_EMISSIONSPASSENGER_CAR;average;average;averageEND_EMISSIONS
		</description>
	</vehicleType>
	<!-- all vehicles used by drt/ev must get a type assigned here (e.g. a HBEFA4.1 e-car, but for now the average car) -->
	<!-- Note, that if the vehicleType definition changes we must also adjust the code in AriadneModule! -->
	<!-- So please use this vehicleType exactly as specified here! -->
	<vehicleType id="drtCar">
		<description>
			BEGIN_EMISSIONSLIGHT_COMMERCIAL_VEHICLE;average;average;averageEND_EMISSIONS
		</description>
	</vehicleType>
	<vehicle id="drtA_1" type="drtCar" />
	<vehicle id="drtA_2" type="drtCar" />
	<vehicle id="drtB_1" type="drtCar" />
	<vehicle id="drtB_2" type="drtCar" />
</vehicleDefinitions>
